/*--------------------------------*- C++ -*----------------------------------*\
| =========                 |                                                 |
| \\      /  F ield         | OpenFOAM: The Open Source CFD Toolbox           |
|  \\    /   O peration     | Version:  v2106                                 |
|   \\  /    A nd           | Website:  www.openfoam.com                      |
|    \\/     M anipulation  |                                                 |
\*---------------------------------------------------------------------------*/
FoamFile
{
    version     2.0;
    format      ascii;
    class       volScalarField;
    object      omega;
}
// * * * * * * * * * * * * * * * * * * * * * * * * * * * * * * * * * * * * * //

dimensions      [0 0 -1 0 0 0 0];

internalField   uniform 2;

boundaryField
{
    #includeEtc "caseDicts/setConstraintTypes"

    "(bk:inlet|bk:outlet)"
    {
        type            inletOutlet;
        /*inletValue      uniform 0.1;
        value           uniform 0.1;*/
        inletValue      $internalField;
        value           $internalField;
        
    }
    
    bk:stationarywalls
    {
        type            omegaWallFunction;
        value           $internalField;
    }

    bk:atmosphere
    {
        type            inletOutlet;
        inletValue      $internalField;
        value           $internalField;
    }
    bk:symmetry1
    {
        type            omegaWallFunction;
        value           $internalField;
    }
    bk:symmetry2
    {
        type            omegaWallFunction;
        value           $internalField;
    }

    ov:cylinder
    {
        type            omegaWallFunction;
        value           $internalField;
    }
}


// ************************************************************************* //
